
# A 2x2x2 cm3 cube placed in the center:
VOLUME 1 Vol01 1 2 0 DummyWord 2 2 2 0 0 0

MATERIAL 1 Al2O3 1 2
8  3
13 2
ENDMATERIAL

SOURCE 1 0 0 0 0
1.00 1
Chain_Th232 0 100.0
ENDSOURCE

MAXSTEPSIZE 0.001     
BIASFACTOR 10000   

NEVENTS 10000000       
OUTPUTFILE ./outputs/examples/yields/yield13_v2 # without the extension
OUTPUTTYPE 1 0 2 


END

